Mineral: Abhurite
Rruff sample: R060227
Ideal chemistry: Sn^2+^_21_O_6_(OH)_14_Cl_16_
Locality: Wreck of the SS Cheerful, 14 miles NNW of St. Ives, Cornwall, England
Source: Michael Scott
Description: Aggregate of tan colored platy crystals
Measured chemistry: Sn^2+^_21.00_Cl_16.00_(OH)_14.00_O_6_ ; (OH) estimated by difference
Diffraction sample description: Single crystal, powder profile is calculated
Cell parameters: a: 9.981 b: 9.981 c: 43.84 alpha: 90 beta: 90 gamma: 120 volume: 3782 crystal system: hexagonal
Filetype: Raman RAW
Raman wavelength: 780
x	intensity
82.5666	4436.75
94.1374	6454.75
105.708	5980.19
117.279	5737.84
128.85	4272.16
140.421	3915.27
151.991	3112.44
163.562	2524.18
175.133	3081.19
186.704	3182.85
198.275	4172.09
209.845	4194.2
221.416	2125.74
232.987	1658.72
244.558	1746.25
256.129	1886.15
267.699	1142.86
279.27	698.313
290.841	541.882
302.412	504.613
313.983	527.978
325.553	602.418
337.124	689.567
348.695	743.251
360.266	778.626
371.837	673.752
383.407	518.853
394.978	422.626
406.549	377.278
418.12	366.087
429.691	366.647
441.261	380.611
452.832	387.585
464.403	381.302
475.974	352.294
487.545	276.509
499.115	219.191
510.686	199.329
522.257	191.346
533.828	179.279
545.399	174.266
556.969	156.94
568.54	144.637
580.111	133.409
591.682	126.751
603.253	120.063
614.823	115.59
626.394	112.768
637.965	108.9
649.536	105.204
661.107	101.689
672.677	98.1875
684.248	95.147
695.819	93.211
707.39	91.1531
718.961	89.099
730.531	86.6479
742.102	85.5217
753.673	83.981
765.244	82.5557
776.815	82.2928
788.385	80.974
799.956	81.3994
811.527	80.2804
823.098	80.1527
834.669	79.4809
846.239	78.9479
857.81	76.5087
869.381	75.237
880.952	75.2383
892.523	75.2996
904.093	75.8896
915.664	78.6115
927.235	78.2819
938.806	76.6932
950.377	78.2607
961.947	84.8837
973.518	93.0333
985.089	103.753
996.66	106.002
1008.23	91.1211
1019.8	77.8838
1031.37	71.5474
1042.94	69.6581
1054.51	66.4874
1066.09	63.7699
1077.65	60.2298
1089.23	58.1077
1100.8	56.6229
1112.37	54.7004
1123.94	52.8189
1135.51	52.4318
1147.08	50.1585
1158.65	50.05
1170.22	49.9186
1181.79	49.2766
1193.36	48.2498
1204.93	47.7655
1216.51	47.766
1228.08	47.4189
1239.65	46.7779
1251.22	47.5174
1262.79	46.6023
1274.36	46.3086
1285.93	46.509
1297.5	46.8526
1309.07	46.6784
1320.64	46.5159
1332.21	45.5859
1343.78	45.2212
1355.36	44.7692
1366.92	44.5926
1378.5	44.461
1390.07	44.5959
1401.64	44.219
1413.21	44.3716
1424.78	43.7781
1436.35	43.1791
1447.92	43.6084
1459.49	42.4817
1471.06	42.2447
1482.63	42.4987
1494.2	42.5711
1505.78	41.4002
1517.35	40.9634
1528.92	41.0316
1540.49	40.9355
1552.06	41.6919
1563.63	43.0126
1575.2	40.5516
1586.77	39.9841
1598.34	39.3331
1609.91	39.0045
1621.48	38.8503
1633.05	38.6516
1644.62	37.8244
1656.19	37.5413
1667.77	37.2932
1679.34	38.0286
1690.91	37.4286
1702.48	36.9036
1714.05	36.5346
1725.62	36.0739
1737.19	36.1024
1748.76	34.9609
1760.33	34.9447
1771.9	34.6592
1783.47	34.8567
1795.05	34.6165
1806.62	33.5548
1818.19	33.6146
1829.76	33.1078
1841.33	33.3234
1852.9	32.2458
1864.47	32.4395
1876.04	32.0701
1887.61	32.0762
1899.18	31.172
1910.75	31.195
1922.32	31.4897
1933.89	31.1279
1945.46	31.0052
1957.04	30.5591
1968.61	29.9765
1980.18	29.9069
1991.75	29.0171
2003.32	28.9396
2014.89	27.6832
2026.46	27.2172
2038.03	27.3768
2049.6	26.5812
2061.17	25.9536
2072.74	25.4061
2084.32	25.5285
2095.89	24.964
2107.46	24.9201
2119.03	24.2046
2130.6	24.3158
2142.17	23.3162
2153.74	23.3082
2165.31	22.5593
2176.88	22.9875
2188.45	22.4483
2200.02	21.9234
2211.59	21.3586
2223.16	21.3057
2234.74	21.2485
2246.31	19.9988
2257.88	20.5672
2269.45	19.7754
2281.02	19.9447
2292.59	18.3558
2304.16	19.2703
2315.73	19.0087
2327.3	19.4681
2338.87	18.2938
2350.44	17.9352
2362.01	18.0986
2373.59	17.0285
2385.16	17.167
2396.73	16.5974
2408.3	16.6678
2419.87	16.5253
2431.44	16.0799
2443.01	16.5032
2454.58	15.243
2466.15	15.6101
2477.72	15.0806
2489.29	14.8304
2500.86	13.9257
2512.43	14.0313
2524.01	14.2733
2535.58	13.6006
2547.15	13.5456
2558.72	13.6704
2570.29	12.4753
2581.86	12.8203
2593.43	12.5411
2605	12.0277
2616.57	11.8348
2628.14	11.3069
2639.71	11.1454
2651.28	11.3101
2662.86	10.8159
2674.43	10.4197
2686	10.6423
2697.57	10.558
2709.14	10.1972
2720.71	9.64138
2732.28	9.87782
2743.85	9.04487
2755.42	8.62631
2766.99	8.98121
2778.56	8.79624
2790.13	8.6111
2801.7	8.83084
2813.28	8.23647
2824.85	8.1504
2836.42	7.34031
2847.99	6.94052
2859.56	7.95391
2871.13	7.07127
2882.7	6.67187
2894.27	6.79147
2905.84	6.66478
2917.41	6.32847
2928.98	6.91429
2940.55	6.06767
2952.12	6.83977
2963.7	5.30637
2975.27	6.81034
2986.84	5.54024
2998.41	5.54871
3009.98	5.11133
3021.55	5.16307
3033.12	4.75313
3044.69	5.00314
3056.26	4.30565
3067.83	4.42392
3079.4	4.99725
3090.97	4.48697
3102.55	4.77563
3114.12	4.363
3125.69	4.60919
3137.26	4.61087
3148.83	4.32294
3160.4	3.98297
3171.97	4.07053
3183.54	4.03167
3195.11	3.923
3206.68	4.36012
3218.25	3.18829
3229.82	4.17293
3241.39	3.64053
3252.97	4.10668
3264.54	3.36774
3276.11	4.74665
3287.68	4.54257
3299.25	5.39841
3310.82	4.87124
3322.39	4.2813
3333.96	4.52481
3345.53	5.04313
3357.1	4.95865
3368.67	4.8205
3380.24	3.72808
3391.82	5.63569
3403.39	5.72031
3414.96	6.38285
3426.53	6.52879
3438.1	5.23947
3449.67	3.09378
3461.24	4.74134
3472.81	2.71254
3484.38	2.93492
3495.95	3.14045
3507.52	3.38529
3519.09	3.10504
3530.66	2.72596
3542.24	3.11727
3553.81	2.35975
3565.38	4.11649
3576.95	3.43662
3588.52	2.82747
3600.09	2.87674
3611.66	1.8262
3623.23	1.11811
3634.8	2.46561
3646.37	1.98513
3657.94	2.32283
3669.51	1.94884
3681.09	1.95823
3692.66	1.98626
3704.23	1.67985
3715.8	2.52866
3727.37	2.12046
3738.94	1.33777
3750.51	1.60598
3762.08	1.25985
3773.65	1.36089
3785.22	1.65092
3796.79	2.0547
3808.36	1.7467
3819.93	0.906342
3831.51	1.18788
3843.08	1.56599
3854.65	2.0589
3866.22	1.65753
3877.79	0.906241
3889.36	0.395155
3900.93	1.48235
3912.5	1.9783
3924.07	1.55868
3935.64	1.3555
3947.21	1.53937
3958.78	1.76819
3970.36	1.74578
3981.93	1.49292
3993.5	-0.267413
4005.07	0.298031
4016.64	0.0996055
4028.21	0.88916
4039.78	-0.532624
4051.35	-0.308555
4062.92	-0.253105
4074.49	0.760197
4086.06	0.186117
4097.63	1.50795
4109.2	0.397932
4120.77	-0.454403
4132.35	0.682912
4143.92	0.796067
4155.49	0.731543
4167.06	0.656401
4178.63	-0.190377
4190.2	0.989736
4201.77	0.352901
4213.34	-0.0441088
4224.91	0.418788
4236.48	0.177367
4248.05	-0.172047
4259.62	0.465878
4271.2	-0.103749
4282.77	0.0163761
4294.34	1.14246
4305.91	-0.170054
4317.48	-0.192773
4329.05	0.620515
4340.62	-0.0693052
4352.19	0.517637
4363.76	1.08855
4375.33	0.724351
