Mineral: Abellaite
Rruff sample: R250095
Ideal chemistry: NaPb_2_(CO_3_)_2_(OH)
Locality: Eureka mine, Lleida province, Catalonia, Spain
Source: Jordi Ibáñez-Insa
Description: Aggregates of subhedral and pseudohexagonal colorless to white platelets.  Type sample, described in Ibáñez-Insa et al (2017)
Measured chemistry: Na_0.96_Ca_0.04_Pb_1.98_(CO_3_)_2_(OH)
Diffraction sample description: Powder, profile is calculated
Cell parameters: a: 5.254 b: 5.254 c: 13.45 alpha: 90 beta: 90 gamma: 120 volume: 321.5 crystal system: hexagonal
Filetype: Raman RAW
Raman wavelength: 532
x	intensity
50	128.249
60.1412	67.0249
70.2824	73.5706
80.4236	109.245
90.5648	131.797
100.706	133.913
110.847	85.2928
120.988	47.4415
131.13	34.6608
141.271	29.2033
151.412	21.9644
161.553	17.5826
171.694	13.7428
181.836	12.9411
191.977	14.2053
202.118	16.4739
212.259	14.2929
222.401	13.0242
232.542	12.5588
242.683	11.6961
252.824	11.9333
262.965	12.297
273.107	11.4173
283.248	10.4656
293.389	8.42682
303.53	6.75979
313.671	5.99737
323.813	6.1056
333.954	5.87395
344.095	5.65303
354.236	5.65283
364.377	5.56223
374.519	5.09758
384.66	4.89397
394.801	5.19718
404.942	5.21467
415.083	5.12593
425.225	5.4172
435.366	5.27638
445.507	5.44576
455.648	5.51458
465.789	4.93353
475.931	5.22207
486.072	5.20891
496.213	4.9411
506.354	4.73919
516.495	4.60997
526.637	4.74397
536.778	4.85939
546.919	4.8604
557.06	4.98555
567.202	4.85429
577.343	4.75017
587.484	4.72865
597.625	4.48628
607.766	4.53717
617.908	4.65244
628.049	4.41076
638.19	4.57471
648.331	4.49542
658.472	4.48516
668.614	4.72218
678.755	6.15543
688.896	6.73058
699.037	5.53771
709.178	5.02714
719.32	6.13411
729.461	7.50387
739.602	5.4479
749.743	4.56722
759.884	4.69193
770.026	4.7369
780.167	4.76863
790.308	4.54869
800.449	4.72366
810.591	5.14484
820.732	4.95257
830.873	5.25586
841.014	5.16031
851.155	5.24419
861.297	5.04937
871.438	4.62331
881.579	4.18396
891.72	4.11349
901.861	4.32214
912.003	4.28177
922.144	4.22476
932.285	4.03428
942.426	4.12886
952.567	4.08875
962.709	4.16406
972.85	4.25233
982.991	4.1648
993.132	4.328
1003.27	4.22008
1013.41	4.2022
1023.56	4.0236
1033.7	4.57994
1043.84	5.15364
1053.98	22.3106
1064.12	9.10286
1074.26	4.50464
1084.4	4.5181
1094.54	4.51691
1104.69	4.3928
1114.83	4.42367
1124.97	4.44795
1135.11	4.25515
1145.25	4.13303
1155.39	4.38691
1165.53	3.88161
1175.67	3.98977
1185.82	4.24268
1195.96	4.23022
1206.1	4.02399
1216.24	4.10368
1226.38	3.89516
1236.52	4.08487
1246.66	4.18215
1256.8	4.05277
1266.94	4.47539
1277.09	4.03578
1287.23	4.17654
1297.37	4.19397
1307.51	4.90145
1317.65	5.23265
1327.79	5.365
1337.93	6.15477
1348.07	6.50494
1358.22	7.8309
1368.36	9.39719
1378.5	11.7643
1388.64	15.1231
1398.78	13.7885
1408.92	11.9588
1419.06	9.68427
1429.2	8.19585
1439.35	6.99763
1449.49	6.02335
1459.63	5.71807
1469.77	5.53512
1479.91	5.25685
1490.05	5.20365
1500.19	4.99461
1510.33	4.84907
1520.47	4.84373
1530.62	4.74776
1540.76	4.77449
1550.9	4.4927
1561.04	4.71431
1571.18	4.50678
1581.32	4.32281
1591.46	4.23753
1601.6	4.24314
1611.75	4.22162
1621.89	3.91952
1632.03	3.95242
1642.17	4.18798
1652.31	4.29765
1662.45	3.91065
1672.59	4.0474
1682.73	4.10725
1692.88	4.28882
1703.02	3.90501
1713.16	4.05913
1723.3	4.26194
1733.44	3.97677
1743.58	3.87902
1753.72	3.84377
1763.86	3.91322
1774.01	3.62057
1784.15	3.89418
1794.29	3.77287
1804.43	4.10122
1814.57	4.42652
1824.71	4.26734
1834.85	4.01293
1844.99	3.99495
1855.13	3.70521
1865.28	3.98657
1875.42	3.91111
1885.56	3.85405
1895.7	3.69982
1905.84	3.69677
1915.98	3.7936
1926.12	3.84618
1936.26	3.85641
1946.41	3.89808
1956.55	3.56143
1966.69	3.75712
1976.83	3.70326
1986.97	3.54581
1997.11	3.75179
2007.25	3.53521
2017.39	3.12503
2027.54	3.44469
2037.68	3.49785
2047.82	3.4606
2057.96	3.37227
2068.1	3.48003
2078.24	3.28308
2088.38	3.35854
2098.52	3.6085
2108.67	3.49348
2118.81	3.51185
2128.95	3.32317
2139.09	3.25684
2149.23	3.36221
2159.37	3.48834
2169.51	3.80599
2179.65	3.90851
2189.79	3.58627
2199.94	3.9934
2210.08	3.66272
2220.22	3.79504
2230.36	3.53127
2240.5	3.42044
2250.64	3.53365
2260.78	3.63595
2270.92	3.17895
2281.07	3.51404
2291.21	3.34524
2301.35	3.1696
2311.49	3.3878
2321.63	3.3734
2331.77	3.12585
2341.91	3.25739
2352.05	3.24857
2362.2	3.14462
2372.34	3.01677
2382.48	3.16769
2392.62	3.16725
2402.76	3.18849
2412.9	2.95326
2423.04	3.05408
2433.18	3.07559
2443.32	2.97233
2453.47	3.11795
2463.61	2.78393
2473.75	3.10823
2483.89	3.41374
2494.03	3.00707
2504.17	3.08465
2514.31	3.30787
2524.45	3.34424
2534.6	3.43677
2544.74	3.36226
2554.88	3.40711
2565.02	3.14198
2575.16	3.14176
2585.3	3.39006
2595.44	3.03038
2605.58	2.83244
2615.73	2.87008
2625.87	2.96577
2636.01	2.93404
2646.15	3.09954
2656.29	2.80844
2666.43	2.71166
2676.57	3.07721
2686.71	2.84556
2696.85	2.85709
2707	3.00268
2717.14	2.84425
2727.28	3.13529
2737.42	2.91654
2747.56	2.65342
2757.7	2.65172
2767.84	2.54059
2777.98	2.66834
2788.13	2.60181
2798.27	2.56675
2808.41	2.61687
2818.55	2.56626
2828.69	2.71494
2838.83	2.54997
2848.97	2.7524
2859.11	2.95008
2869.26	3.18949
2879.4	3.41203
2889.54	3.17459
2899.68	3.06164
2909.82	3.0727
2919.96	2.91707
2930.1	3.10783
2940.24	2.83544
2950.39	3.05807
2960.53	2.90593
2970.67	2.6523
2980.81	2.50815
2990.95	2.49627
3001.09	2.73252
3011.23	2.48727
3021.37	2.57021
3031.51	2.36424
3041.66	2.49242
3051.8	2.40928
3061.94	2.43449
3072.08	2.46647
3082.22	2.33357
3092.36	2.49072
3102.5	2.10102
3112.64	2.29964
3122.79	2.2507
3132.93	2.5035
3143.07	2.10282
3153.21	2.20213
3163.35	2.29366
3173.49	2.49823
3183.63	2.57236
3193.77	2.26781
3203.92	2.33366
3214.06	2.27785
3224.2	2.59787
3234.34	2.44656
3244.48	2.29484
3254.62	2.44761
3264.76	2.36614
3274.9	2.38062
3285.04	2.35397
3295.19	2.18964
3305.33	2.28559
3315.47	2.24481
3325.61	2.11075
3335.75	2.12079
3345.89	2.28634
3356.03	2.18051
3366.17	2.08714
3376.32	2.21271
3386.46	2.16989
3396.6	2.07382
3406.74	2.48424
3416.88	2.1758
3427.02	2.00163
3437.16	2.168
3447.3	1.95471
3457.45	2.15951
3467.59	2.53341
3477.73	2.58692
3487.87	2.76913
3498.01	2.75084
3508.15	3.02773
3518.29	2.81256
3528.43	2.36271
3538.58	2.24311
3548.72	2.40501
3558.86	2.19835
3569	2.04913
3579.14	1.99997
3589.28	1.90549
3599.42	2.05092
3609.56	1.93301
3619.7	1.99203
3629.85	1.8867
3639.99	2.04286
3650.13	1.81747
3660.27	1.85961
3670.41	1.87136
3680.55	1.78777
3690.69	1.75241
3700.83	1.65835
3710.98	1.59424
3721.12	1.57837
3731.26	1.63651
3741.4	1.75902
3751.54	1.86566
3761.68	1.7932
3771.82	1.95249
3781.96	1.7985
3792.11	1.80919
3802.25	1.64397
3812.39	1.79354
3822.53	1.59038
3832.67	1.9161
3842.81	1.70976
3852.95	1.75569
3863.09	1.60432
3873.23	1.60943
3883.38	1.51235
3893.52	1.68637
3903.66	1.4039
3913.8	1.58534
3923.94	1.60169
3934.08	1.63354
3944.22	1.57939
3954.36	1.49014
3964.51	1.35495
3974.65	1.35392
3984.79	1.4225
3994.93	1.45993
