Mineral: Abelsonite
Rruff sample: R070007
Ideal chemistry: NiC_31_H_32_N_4_
Locality: Green River Formation, Utah, USA
Source: Geophysical Laboratory, Carnegie Institution of Washington
Description: Purple platy crystals embedded in drill core
Measured chemistry: (Ni_0.92_Fe^2+^_0.05_Cr_0.02_)C_31_H_32_N_4_ ; C, H and N not measured but estimated by stoichiometry
Diffraction sample description: Single crystal, powder profile is calculated for Cu radiation
Cell parameters: a: 8.5 b: 11.2 c: 7.26 alpha: 91.21 beta: 113.61 gamma: 79.73 volume: 622 crystal system: triclinic
Filetype: Raman RAW
Raman wavelength: 532
x	intensity
175.003	4434.01
192.359	4880.96
209.716	5112.63
227.072	5171.39
244.428	5268.22
261.784	5456.93
279.14	5527.35
296.497	5619.82
313.853	5743.12
331.209	5955.1
348.565	6054.67
365.921	5952.76
383.278	5726.71
400.634	5492.64
417.99	5386.31
435.346	5474.44
452.702	5496.14
470.059	5591.14
487.415	5846.55
504.771	6049.02
522.127	6038.2
539.484	5865.14
556.84	5951.13
574.196	6021.74
591.552	6147
608.908	6301.98
626.264	6530.92
643.621	6804.42
660.977	7127.92
678.333	7382.28
695.689	7753.49
713.045	8177.4
730.402	8563.05
747.758	8635.72
765.114	8918.5
782.47	8920.74
799.827	8887.7
817.183	8831.94
834.539	8778.71
851.895	8624.26
869.251	8666.82
886.607	8911.13
903.964	9381.24
921.32	9846.82
938.676	10506.7
956.032	11205.8
973.389	11719.9
990.745	11940.9
1008.1	12137.4
1025.46	12327.6
1042.81	12809.2
1060.17	13711.5
1077.53	14649.5
1094.88	16151.4
1112.24	18317.5
1129.59	20389.5
1146.95	21416.5
1164.31	21192.3
1181.66	19759.2
1199.02	19334.8
1216.38	20205.8
1233.73	22166.5
1251.09	23754.6
1268.44	25167.4
1285.8	27122.2
1303.16	27137.4
1320.51	27281.2
1337.87	28902.1
1355.22	31986.3
1372.58	34460.4
1389.94	34235.6
1407.29	33849.2
1424.65	31826
1442.01	31171.8
1459.36	31798.5
1476.72	33118
1494.08	34516
1511.43	35874.4
1528.79	38676.8
1546.14	42428.5
1563.5	46970.3
1580.86	53138.3
1598.21	57113.6
1615.57	49780.9
1632.92	42182.4
1650.28	41715.7
1667.64	37028.3
1684.99	32393.5
1702.35	31222.4
1719.7	30894.5
1737.06	30660.4
1754.42	30549.4
1771.77	30418.8
1789.13	30439.2
1806.49	30333.3
1823.84	30506.7
1841.2	30820
1858.56	31093.2
1875.91	31647.1
1893.27	32176
1910.62	32482.3
1927.98	32771.1
1945.34	33116.1
1962.69	33195.5
1980.05	33381.1
1997.4	33752.7
2014.76	33940.2
2032.12	34236.4
2049.47	35100.5
2066.83	35537.2
2084.19	35781.9
2101.54	36266.9
2118.9	36749.3
2136.25	36954.7
2153.61	37483.2
2170.97	38208.5
2188.32	39189.8
2205.68	39987.7
2223.03	40848.6
2240.39	41973.8
2257.75	42535.1
2275.1	43436.4
2292.46	43936.4
2309.82	44618.3
2327.17	45544.7
2344.53	46819.6
2361.89	47966.6
2379.24	48292.2
2396.6	49555
2413.95	50104.6
2431.31	50220.5
2448.67	49807.6
2466.02	50821
2483.38	51950.9
2500.73	53173.3
2518.09	54987.1
2535.45	55719.7
2552.8	56143.5
2570.16	56956
2587.51	56936.3
2604.87	56955.3
2622.23	57160.4
2639.58	58406.1
2656.94	59072.7
2674.3	61036.3
2691.65	62982.9
2709.01	64723.9
2726.36	64765.1
2743.72	64651.4
2761.08	64609.1
2778.43	64063
2795.79	64035.4
2813.15	65725.1
2830.5	67404.2
2847.86	68819.1
2865.22	70007.9
2882.57	70371.9
2899.93	67895.4
2917.28	67080.4
2934.64	67895.9
2952	66745
2969.35	65144.9
2986.71	64977.1
3004.06	63907.2
3021.42	61972.2
3038.78	60911.3
3056.13	60438.9
3073.49	59757.3
3090.84	58882.7
3108.2	59012.4
3125.56	61144.1
3142.91	64334.8
3160.27	68267.5
3177.63	70259.7
3194.98	68282
3212.34	64247.3
3229.7	61889.9
3247.05	58714.9
3264.41	53242.3
3281.76	49577.4
3299.12	47965.8
3316.48	46005.7
3333.83	44356.4
3351.19	43319.2
3368.54	42812.5
3385.9	42149.2
3403.26	41579.4
3420.61	41223.5
3437.97	41007.6
3455.32	40639.8
3472.68	40469
3490.04	40344.4
3507.39	40170.2
3524.75	40139.7
3542.11	39912.5
3559.46	39765.4
3576.82	39368.4
3594.18	39389.7
3611.53	39436.4
3628.89	39127.2
3646.24	39089.1
3663.6	39197.2
3680.96	39136.2
3698.31	39058.8
3715.67	39205.5
3733.03	39016.2
3750.38	39201.4
3767.74	39133.3
3785.09	39436.6
3802.45	39559.2
3819.81	39349
3837.16	39584.8
3854.52	39721.7
3871.87	39636.7
3889.23	39331.3
3906.59	39357.2
3923.94	39191.3
3941.3	39188.6
3958.66	39027.8
3976.01	39014.6
3993.37	38881
4010.72	38727.9
4028.08	38900.2
4045.44	38638.4
4062.79	38536.6
4080.15	38636.7
4097.51	38685.5
4114.86	38740
4132.22	38723.6
4149.57	38547.7
4166.93	38521.8
4184.29	38657.7
4201.64	38654.9
4219	38570.9
4236.35	38754.4
4253.71	38735.6
4271.07	39105
4288.42	39204.1
4305.78	39671.2
4323.14	39800.7
4340.49	40018.8
4357.85	40232.2
4375.2	40483
4392.56	40646.5
4409.92	40916.4
4427.27	41019.7
4444.63	41376.1
4461.98	41485.8
4479.34	41561.1
4496.7	41796.8
4514.05	41965.1
4531.41	42159.2
4548.77	42444
4566.12	42619.3
4583.48	42686.3
4600.84	43094.1
4618.19	43343.5
4635.55	43511.3
4652.9	43597.9
4670.26	44006.4
4687.62	44313.2
4704.97	44363.1
4722.33	44665.4
4739.69	44891.4
4757.04	44880.9
4774.4	45225
4791.75	45379.4
4809.11	45441.7
4826.47	45606.7
4843.82	45698.9
4861.18	45782.7
4878.53	45879.8
4895.89	45902.5
4913.25	46252.6
4930.6	46169
4947.96	46418.7
4965.31	46576.8
4982.67	46621.2
5000.03	46936
5017.38	47143.3
5034.74	47062.1
5052.1	47214.9
5069.45	47441.5
5086.81	47546.6
5104.16	47590.4
5121.52	47615.8
5138.88	47708.9
5156.23	47909.3
5173.59	48206.1
5190.95	48109.4
5208.3	48442.1
5225.66	48563.9
5243.01	48645.1
5260.37	48672.1
5277.73	48679.9
5295.08	48599.5
5312.44	48807.2
5329.8	48950.7
5347.15	48902.6
5364.51	48646.2
5381.86	48620.9
5399.22	48744
5416.58	48739.9
5433.93	48318.9
5451.29	48342.3
5468.65	48420.7
5486	48301.7
5503.36	48386
5520.71	48090.8
5538.07	48042.7
5555.43	47842.1
5572.78	47462.2
5590.14	47401.2
5607.49	47044.9
5624.85	47068.4
5642.21	46667.2
5659.56	46555.9
5676.92	46246.1
5694.27	45993.2
5711.63	45761.6
5728.99	45315.4
5746.34	45187.3
5763.7	44645.2
5781.06	44527.3
5798.41	44284.6
5815.77	44146.9
5833.12	43503.5
5850.48	43442.8
5867.84	43056.7
5885.19	42618.5
5902.55	42175.2
5919.91	41984.8
5937.26	41559.8
5954.62	41068.4
5971.98	40915.3
5989.33	40448.1
6006.69	39714.8
6024.04	39541.9
6041.4	38946.6
6058.76	38608.3
6076.11	38244.1
6093.47	37565.5
6110.82	37120.3
6128.18	36660.9
6145.54	36088.3
6162.89	35561.8
6180.25	35173.5
6197.6	34443.7
6214.96	33887.1
6232.32	33508.7
6249.67	33094.1
6267.03	32615.8
6284.39	32041.2
6301.74	31660.5
6319.1	31034.7
6336.45	30698.2
6353.81	30117.7
6371.17	29650
6388.52	29310
6405.88	28586.6
6423.24	28157.5
6440.59	27815.9
6457.95	27218.3
6475.31	26810.4
6492.66	26368.4
6510.02	25986
6527.37	25511.7
6544.73	25325.3
6562.09	24921.1
